
No compatibility mode selected!


Circuit: 

Scale set to 1e-06
Doing analysis at TEMP = 27.000000 and TNOM = 27.000000

Warning: vout: has no value, DC 0 assumed
Warning: v3: no DC value, transient time 0 value used
Warning: v2: no DC value, transient time 0 value used
Warning: v1: no DC value, transient time 0 value used

Initial Transient Solution
--------------------------

Node                                   Voltage
----                                   -------
out                                1.51234e-07
v2                                         0.8
v1                                         0.7
v3                                         1.8
gnd                                1.51234e-07
vout#branch                                  0
v3#branch                                    0
v2#branch                                    0
v1#branch                         -1.45216e-12


No. of Data Rows : 3770
binary raw file "nand2_voltage_aware.raw"
Doing analysis at TEMP = 27.000000 and TNOM = 27.000000

Warning: vout: has no value, DC 0 assumed
Warning: v3: no DC value, transient time 0 value used
Warning: v2: no DC value, transient time 0 value used
Warning: v1: no DC value, transient time 0 value used
No. of Data Columns : 7  

Initial Transient Solution
--------------------------

Node                                   Voltage
----                                   -------
out                                   0.712251
v2                                         0.8
v1                                         0.7
v3                                         1.8
gnd                                   0.712251
vout#branch                                  0
v3#branch                          -0.00385036
v2#branch                         -0.000424997
v1#branch                           0.00131925


No. of Data Rows : 3770

Total analysis time (seconds) = 0.215203

Total CPU time (seconds) = 15.670 

Total DRAM available = 1986.613 MB.
DRAM currently available =  168.992 MB.
Maximum ngspice program size =   80.746 MB.
Current ngspice program size =   64.914 MB.

Shared ngspice pages =    9.301 MB.
Text (code) pages =    4.895 MB.
Stack = 0 bytes.
Library pages =   55.785 MB.

